4w9f_ligand
     RDKit          3D

 29 31  0  0  0  0  0  0  0  0999 V2000
   -5.7210   33.6970   -4.1200 C   0  0  0  0  0  0  0  0  0  0  0  0
   -5.6720   34.2880   -2.7120 C   0  0  2  0  0  0  0  0  0  0  0  0
   -5.1440   35.7300   -2.8300 C   0  0  0  0  0  0  0  0  0  0  0  0
   -4.7520   33.4240   -1.8280 C   0  0  0  0  0  0  0  0  0  0  0  0
   -7.0780   34.2620   -2.1790 C   0  0  0  0  0  0  0  0  0  0  0  0
   -7.0750   34.7340   -0.6890 C   0  0  0  0  0  0  0  0  0  0  0  0
   -6.8530   35.9110   -0.4070 O   0  0  0  0  0  0  0  0  0  0  0  0
   -7.3620   33.8130    0.2600 N   0  0  0  0  0  0  0  0  0  0  0  0
   -7.7210   32.3670    0.1000 C   0  0  0  0  0  0  0  0  0  0  0  0
   -8.5470   32.0450    1.3090 C   0  0  2  0  0  0  0  0  0  0  0  0
   -9.9030   32.4110    1.0820 O   0  0  0  0  0  0  0  0  0  0  0  0
   -7.9270   32.9050    2.3850 C   0  0  0  0  0  0  0  0  0  0  0  0
   -7.4880   34.1960    1.7010 C   0  0  1  0  0  0  0  0  0  0  0  0
   -6.3150   34.6750    2.3220 C   0  0  0  0  0  0  0  0  0  0  0  0
   -5.2200   34.2430    1.9990 O   0  0  0  0  0  0  0  0  0  0  0  0
   -6.5060   35.5240    3.3430 N   0  0  0  0  0  0  0  0  0  0  0  0
   -5.4280   36.0820    4.1530 C   0  0  0  0  0  0  0  0  0  0  0  0
   -5.2620   35.2770    5.3090 C   0  0  0  0  0  0  0  0  0  0  0  0
   -4.0500   35.3250    5.9940 C   0  0  0  0  0  0  0  0  0  0  0  0
   -3.8310   34.5360    7.1320 C   0  0  0  0  0  0  0  0  0  0  0  0
   -6.2500   34.4090    5.8020 C   0  0  0  0  0  0  0  0  0  0  0  0
   -6.0230   33.6160    6.9350 C   0  0  0  0  0  0  0  0  0  0  0  0
   -4.8190   33.6690    7.6290 C   0  0  0  0  0  0  0  0  0  0  0  0
   -4.6090   32.9010    8.7260 C   0  0  0  0  0  0  0  0  0  0  0  0
   -5.0140   31.2680    8.8960 S   0  0  0  0  0  0  0  0  0  0  0  0
   -4.4390   31.0900   10.4140 C   0  0  0  0  0  0  0  0  0  0  0  0
   -3.9350   32.2620   10.8040 N   0  0  0  0  0  0  0  0  0  0  0  0
   -4.0270   33.2520    9.8940 C   0  0  0  0  0  0  0  0  0  0  0  0
   -3.4830   34.6450   10.2370 C   0  0  0  0  0  0  0  0  0  0  0  0
  2  1  1  6
  3  2  1  6
  4  2  1  6
  2  5  1  0
  5  6  1  6
  6  7  2  0
  6  8  1  0
  9  8  1  1
  8 13  1  0
  9 10  1  0
 10 11  1  6
 10 12  1  0
 12 13  1  6
 13 14  1  1
 14 15  2  0
 14 16  1  0
 17 16  1  1
 17 18  1  0
 18 19  4  0
 18 21  4  0
 19 20  4  0
 20 23  4  0
 21 22  4  0
 22 23  4  0
 23 24  1  0
 24 25  4  0
 24 28  4  0
 25 26  4  0
 26 27  4  0
 27 28  4  0
 29 28  1  6
M  END
$$$$
