4w9f_ligand
     RDKit          3D

 13 14  0  0  0  0  0  0  0  0999 V2000
   -5.4280   36.0820    4.1530 C   0  0  0  0  0  3  0  0  0  0  0  0
   -5.2620   35.2770    5.3090 C   0  0  0  0  0  0  0  0  0  0  0  0
   -4.0500   35.3250    5.9940 C   0  0  0  0  0  0  0  0  0  0  0  0
   -3.8310   34.5360    7.1320 C   0  0  0  0  0  0  0  0  0  0  0  0
   -6.2500   34.4090    5.8020 C   0  0  0  0  0  0  0  0  0  0  0  0
   -6.0230   33.6160    6.9350 C   0  0  0  0  0  0  0  0  0  0  0  0
   -4.8190   33.6690    7.6290 C   0  0  0  0  0  0  0  0  0  0  0  0
   -4.6090   32.9010    8.7260 C   0  0  0  0  0  0  0  0  0  0  0  0
   -5.0140   31.2680    8.8960 S   0  0  0  0  0  0  0  0  0  0  0  0
   -4.4390   31.0900   10.4140 C   0  0  0  0  0  0  0  0  0  0  0  0
   -3.9350   32.2620   10.8040 N   0  0  0  0  0  0  0  0  0  0  0  0
   -4.0270   33.2520    9.8940 C   0  0  0  0  0  0  0  0  0  0  0  0
   -3.4830   34.6450   10.2370 C   0  0  0  0  0  0  0  0  0  0  0  0
  1  2  1  1
  2  3  4  0
  2  5  4  0
  3  4  4  0
  4  7  4  0
  5  6  4  0
  6  7  4  0
  7  8  1  0
  8  9  4  0
  8 12  4  0
  9 10  4  0
 10 11  4  0
 11 12  4  0
 13 12  1  6
M  END
$$$$
