4w9f_ligand
  -I-interpret- 

 58 60  0  0  0  0  0  0  0  0999 V2000
   -5.7210   33.6970   -4.1200 C   0  0  0  0  0
   -5.6720   34.2880   -2.7120 C   0  0  0  0  0
   -5.1440   35.7300   -2.8300 C   0  0  0  0  0
   -4.7520   33.4240   -1.8280 C   0  0  0  0  0
   -7.0780   34.2620   -2.1790 C   0  0  0  0  0
   -7.0750   34.7340   -0.6890 C   0  0  0  0  0
   -6.8530   35.9110   -0.4070 O   0  0  0  0  0
   -7.3620   33.8130    0.2600 N   0  0  0  0  0
   -7.7210   32.3670    0.1000 C   0  0  0  0  0
   -8.5470   32.0450    1.3090 C   0  0  0  0  0
   -9.9030   32.4110    1.0820 O   0  0  0  0  0
   -7.9270   32.9050    2.3850 C   0  0  0  0  0
   -7.4880   34.1960    1.7010 C   0  0  0  0  0
   -6.3150   34.6750    2.3220 C   0  0  0  0  0
   -5.2200   34.2430    1.9990 O   0  0  0  0  0
   -6.5060   35.5240    3.3430 N   0  0  0  0  0
   -5.4280   36.0820    4.1530 C   0  0  0  0  0
   -5.2620   35.2770    5.3090 C   0  0  0  0  0
   -4.0500   35.3250    5.9940 C   0  0  0  0  0
   -3.8310   34.5360    7.1320 C   0  0  0  0  0
   -6.2500   34.4090    5.8020 C   0  0  0  0  0
   -6.0230   33.6160    6.9350 C   0  0  0  0  0
   -4.8190   33.6690    7.6290 C   0  0  0  0  0
   -4.6090   32.9010    8.7260 C   0  0  0  0  0
   -5.0140   31.2680    8.8960 S   0  0  0  0  0
   -4.4390   31.0900   10.4140 C   0  0  0  0  0
   -3.9350   32.2620   10.8040 N   0  0  0  0  0
   -4.0270   33.2520    9.8940 C   0  0  0  0  0
   -3.4830   34.6450   10.2370 C   0  0  0  0  0
   -6.0974   32.6752   -4.0709 H   0  0  0  0  0
   -6.3822   34.2996   -4.7428 H   0  0  0  0  0
   -4.7183   33.6960   -4.5473 H   0  0  0  0  0
   -5.7829   36.2951   -3.5086 H   0  0  0  0  0
   -5.1511   36.1998   -1.8465 H   0  0  0  0  0
   -4.1256   35.7120   -3.2182 H   0  0  0  0  0
   -4.7559   33.8151   -0.8106 H   0  0  0  0  0
   -5.1142   32.3959   -1.8248 H   0  0  0  0  0
   -3.7374   33.4519   -2.2255 H   0  0  0  0  0
   -7.4722   33.2476   -2.2394 H   0  0  0  0  0
   -7.7050   34.9284   -2.7714 H   0  0  0  0  0
   -6.8368   31.7334    0.0306 H   0  0  0  0  0
   -8.2658   32.1829   -0.8260 H   0  0  0  0  0
   -8.5555   30.9860    1.5670 H   0  0  0  0  0
  -10.4244   32.2016    1.8604 H   0  0  0  0  0
   -7.0804   32.4006    2.8508 H   0  0  0  0  0
   -8.6398   33.1076    3.1843 H   0  0  0  0  0
   -8.1787   35.0352    1.7830 H   0  0  0  0  0
   -7.4632   35.7961    3.5668 H   0  0  0  0  0
   -5.6757   37.1024    4.4456 H   0  0  0  0  0
   -4.5027   36.0970    3.5771 H   0  0  0  0  0
   -3.2594   35.9864    5.6396 H   0  0  0  0  0
   -2.8706   34.5966    7.6440 H   0  0  0  0  0
   -7.2123   34.3510    5.2934 H   0  0  0  0  0
   -6.8077   32.9426    7.2800 H   0  0  0  0  0
   -4.4628   30.1744   11.0049 H   0  0  0  0  0
   -2.7010   34.9133    9.5267 H   0  0  0  0  0
   -4.2919   35.3734   10.1811 H   0  0  0  0  0
   -3.0710   34.6344   11.2461 H   0  0  0  0  0
  1  2  1  0  0  0
  2  3  1  0  0  0
  2  4  1  0  0  0
  2  5  1  0  0  0
  5  6  1  0  0  0
  6  7  2  0  0  0
  6  8  1  0  0  0
  8  9  1  0  0  0
  8 13  1  0  0  0
  9 10  1  0  0  0
 10 11  1  0  0  0
 10 12  1  0  0  0
 12 13  1  0  0  0
 13 14  1  0  0  0
 14 15  2  0  0  0
 14 16  1  0  0  0
 16 17  1  0  0  0
 17 18  1  0  0  0
 18 19  4  0  0  0
 18 21  4  0  0  0
 19 20  4  0  0  0
 20 23  4  0  0  0
 21 22  4  0  0  0
 22 23  4  0  0  0
 23 24  1  0  0  0
 24 25  4  0  0  0
 24 28  4  0  0  0
 25 26  4  0  0  0
 26 27  4  0  0  0
 27 28  4  0  0  0
 28 29  1  0  0  0
  1 30  1  0  0  0
  1 31  1  0  0  0
  1 32  1  0  0  0
  3 33  1  0  0  0
  3 34  1  0  0  0
  3 35  1  0  0  0
  4 36  1  0  0  0
  4 37  1  0  0  0
  4 38  1  0  0  0
  5 39  1  0  0  0
  5 40  1  0  0  0
  9 41  1  0  0  0
  9 42  1  0  0  0
 10 43  1  0  0  0
 11 44  1  0  0  0
 12 45  1  0  0  0
 12 46  1  0  0  0
 13 47  1  0  0  0
 16 48  1  0  0  0
 17 49  1  0  0  0
 17 50  1  0  0  0
 19 51  1  0  0  0
 20 52  1  0  0  0
 21 53  1  0  0  0
 22 54  1  0  0  0
 26 55  1  0  0  0
 29 56  1  0  0  0
 29 57  1  0  0  0
 29 58  1  0  0  0
M  END
$$$$
