5d3h_ligand
  -I-interpret- 

 56 57  0  0  0  0  0  0  0  0999 V2000
    2.8670   55.5510   23.1070 C   0  0  0  0  0
    2.3650   54.6080   22.1870 C   0  0  0  0  0
    5.1130   58.0280   21.3540 C   0  0  0  0  0
    4.4800   59.6640   24.4370 C   0  0  0  0  0
    3.8640   59.7520   23.0440 C   0  0  0  0  0
    4.8640   59.3760   21.9660 C   0  0  0  0  0
    5.7720   60.2000   21.3060 C   0  0  0  0  0
    6.5390   59.3730   20.3290 C   0  0  0  0  0
    4.3790   56.7640   21.6740 C   0  0  0  0  0
    3.0220   51.4500   20.6670 C   0  0  0  0  0
    3.2030   50.2750   19.7380 C   0  0  0  0  0
    5.9530   61.6740   21.5280 C   0  0  0  0  0
    5.2930   62.2910   22.3460 O   0  0  0  0  0
    6.9880   62.3530   20.6830 C   0  0  0  0  0
    1.4970   54.5580   24.8370 C   0  0  0  0  0
    1.0070   53.6290   23.9180 C   0  0  0  0  0
    2.4170   55.5190   24.4280 C   0  0  0  0  0
    1.4300   53.6290   22.5840 C   0  0  0  0  0
    7.6390   59.7160   19.3540 C   0  0  0  0  0
    2.4850   50.1840   23.4500 C   0  0  0  0  0
    1.5410   50.1560   22.2800 C   0  0  0  0  0
    6.0690   58.1220   20.4230 N   0  0  0  0  0
    3.7920   56.5290   22.8480 N   0  0  0  0  0
    1.8070   51.3460   21.4810 N   0  0  0  0  0
    4.2950   55.9690   20.7530 O   0  0  0  0  0
   -0.4800   52.0470   21.8870 O   0  0  0  0  0
    0.7320   53.1110   20.2340 O   0  0  0  0  0
    2.8820   56.4490   25.3130 O   0  0  0  0  0
    0.8500   52.5290   21.5320 S   0  0  0  0  0
    6.9300   63.7700   20.6880 O   0  0  0  0  0
    2.7050   54.6358   21.1517 H   0  0  0  0  0
    4.8168   58.6437   24.6201 H   0  0  0  0  0
    5.3285   60.3451   24.5013 H   0  0  0  0  0
    3.7332   59.9406   25.1813 H   0  0  0  0  0
    3.5439   60.7799   22.8734 H   0  0  0  0  0
    3.0258   59.0570   22.9936 H   0  0  0  0  0
    2.9400   52.3495   20.0568 H   0  0  0  0  0
    3.8765   51.4767   21.3432 H   0  0  0  0  0
    3.2699   49.3578   20.3231 H   0  0  0  0  0
    2.3510   50.2142   19.0609 H   0  0  0  0  0
    4.1184   50.4071   19.1612 H   0  0  0  0  0
    6.8137   62.0345   19.6553 H   0  0  0  0  0
    7.9596   62.0763   21.0924 H   0  0  0  0  0
    1.1598   54.5310   25.8732 H   0  0  0  0  0
    0.2790   52.8872   24.2464 H   0  0  0  0  0
    7.2768   60.4630   18.6477 H   0  0  0  0  0
    8.4948   60.1143   19.8991 H   0  0  0  0  0
    7.9370   58.8175   18.8136 H   0  0  0  0  0
    3.5125   50.1799   23.0863 H   0  0  0  0  0
    2.3091   51.0863   24.0356 H   0  0  0  0  0
    2.3153   49.3060   24.0732 H   0  0  0  0  0
    0.5062   50.1477   22.6225 H   0  0  0  0  0
    1.6925   49.2542   21.6867 H   0  0  0  0  0
    4.0559   57.1335   23.6261 H   0  0  0  0  0
    2.4838   56.2976   26.1733 H   0  0  0  0  0
    7.6241   64.1195   20.1244 H   0  0  0  0  0
  2  1  4  0  0  0
  1 17  4  0  0  0
  1 23  1  0  0  0
 18  2  4  0  0  0
  3  6  4  0  0  0
  9  3  1  0  0  0
  3 22  4  0  0  0
  5  4  1  0  0  0
  6  5  1  0  0  0
  6  7  4  0  0  0
  8  7  4  0  0  0
  7 12  1  0  0  0
  8 19  1  0  0  0
 22  8  4  0  0  0
 23  9  1  0  0  0
  9 25  2  0  0  0
 10 11  1  0  0  0
 24 10  1  0  0  0
 12 13  2  0  0  0
 12 14  1  0  0  0
 14 30  1  0  0  0
 16 15  4  0  0  0
 15 17  4  0  0  0
 18 16  4  0  0  0
 17 28  1  0  0  0
 29 18  1  0  0  0
 21 20  1  0  0  0
 24 21  1  0  0  0
 24 29  1  0  0  0
 29 26  2  0  0  0
 29 27  2  0  0  0
  2 31  1  0  0  0
  4 32  1  0  0  0
  4 33  1  0  0  0
  4 34  1  0  0  0
  5 35  1  0  0  0
  5 36  1  0  0  0
 10 37  1  0  0  0
 10 38  1  0  0  0
 11 39  1  0  0  0
 11 40  1  0  0  0
 11 41  1  0  0  0
 14 42  1  0  0  0
 14 43  1  0  0  0
 15 44  1  0  0  0
 16 45  1  0  0  0
 19 46  1  0  0  0
 19 47  1  0  0  0
 19 48  1  0  0  0
 20 49  1  0  0  0
 20 50  1  0  0  0
 20 51  1  0  0  0
 21 52  1  0  0  0
 21 53  1  0  0  0
 23 54  1  0  0  0
 28 55  1  0  0  0
 30 56  1  0  0  0
M  END
$$$$
